  24
 
 C         -0.2735862228        0.7156315414       -0.9214015068
 C          1.0850123273        1.0752940835       -0.2624587252
 C          0.9833480975        0.7241228362        1.1974667311
 C          0.9533771387       -0.5991328637        1.2876715846
 C          1.0372004518       -1.1502886697       -0.1101307823
 C          1.9431986972       -0.0956947266       -0.7593502927
 C         -0.3043834335       -0.8264414097       -0.8207337976
 C         -1.5836264322       -1.1934529550       -0.0633184360
 C         -2.0213672885        0.0772724688        0.6699658337
 C         -1.5307951706        1.2288192308       -0.2120390218
 H         -0.2541429720        1.0556544587       -1.9591364013
 H          1.4329548674        2.0812009805       -0.4883816626
 H          0.8961718177        1.4476742162        1.9878123711
 H          0.8368318183       -1.2033256034        2.1693604653
 H          1.3408650008       -2.1915890467       -0.1947716436
 H          2.9497541721       -0.0885313994       -0.3425626021
 H          1.9956476965       -0.1712003050       -1.8446121096
 H         -0.2936921999       -1.2991211007       -1.8053426238
 H         -2.3550426204       -1.4879704754       -0.7774565554
 H         -1.4249783821       -2.0260142190        0.6213543142
 H         -3.1021940879        0.1093536690        0.8096460016
 H         -1.5535272802        0.1271042692        1.6519866184
 H         -1.3297879837        2.1290393444        0.3675918470
 H         -2.2927933753        1.4710293095       -0.9550695032
          24
        -28.55245231
 C         -0.2777172712        0.7727511886       -0.8716666910
 C          1.0619686824        1.1155678666       -0.1669453282
 C          0.9474257070        0.6636762694        1.2640580150
 C          0.9472008057       -0.6629627379        1.2644731535
 C          1.0618248683       -1.1157789486       -0.1662287377
 C          1.9526684025       -0.0003455519       -0.7286627730
 C         -0.2777469229       -0.7731174813       -0.8713083677
 C         -1.5577868319       -1.2138058443       -0.1547173706
 C         -2.0339845464        0.0001582016        0.6476193276
 C         -1.5575701502        1.2138643402       -0.1549590040
 H         -0.2473229629        1.1794634807       -1.8848552300
 H          1.3905606478        2.1416975454       -0.3179933766
 H          0.8327628002        1.3297368366        2.1002323337
 H          0.8323661290       -1.3284206403        2.1010935820
 H          1.3902472563       -2.1420679819       -0.3166094120
 H          2.9534577900       -0.0002904910       -0.2979902704
 H          2.0212668308       -0.0006895931       -1.8157639236
 H         -0.2471300575       -1.1803113850       -1.8843025063
 H         -2.3132070162       -1.4822444516       -0.8956429390
 H         -1.3883923606       -2.0820825534        0.4811373001
 H         -3.1170133388        0.0002811206        0.7733330754
 H         -1.5801183027        0.0001865455        1.6374410815
 H         -1.3877257312        2.0820821286        0.4808287151
 H         -2.3130050129        1.4825724177       -0.8957283243
