-28.55241473
 OpenBabel09062220523D

 24 26  0  0  1  0  0  0  0  0999 V2000
   -0.3033    0.7750   -0.7360 C   0  0  1  0  0  0  0  0  0  0  0  0
    1.0995    1.1182   -0.1753 C   0  0  1  0  0  0  0  0  0  0  0  0
    1.1325    0.6632    1.2608 C   0  0  0  0  0  0  0  0  0  0  0  0
    1.1327   -0.6632    1.2608 C   0  0  0  0  0  0  0  0  0  0  0  0
    1.0996   -1.1180   -0.1754 C   0  0  2  0  0  0  0  0  0  0  0  0
    1.9268    0.0001   -0.8259 C   0  0  0  0  0  0  0  0  0  0  0  0
   -0.3033   -0.7751   -0.7361 C   0  0  1  0  0  0  0  0  0  0  0  0
   -1.5171   -1.2001    0.0952 C   0  0  0  0  0  0  0  0  0  0  0  0
   -2.4606   -0.0001    0.0094 C   0  0  0  0  0  0  0  0  0  0  0  0
   -1.5173    1.2000    0.0951 C   0  0  0  0  0  0  0  0  0  0  0  0
   -0.3877    1.1677   -1.7519 H   0  0  0  0  0  0  0  0  0  0  0  0
    1.4154    2.1432   -0.3566 H   0  0  0  0  0  0  0  0  0  0  0  0
    1.1185    1.3277    2.1061 H   0  0  0  0  0  0  0  0  0  0  0  0
    1.1189   -1.3277    2.1060 H   0  0  0  0  0  0  0  0  0  0  0  0
    1.4157   -2.1430   -0.3568 H   0  0  0  0  0  0  0  0  0  0  0  0
    2.9673    0.0002   -0.5024 H   0  0  0  0  0  0  0  0  0  0  0  0
    1.8818    0.0002   -1.9143 H   0  0  0  0  0  0  0  0  0  0  0  0
   -0.3878   -1.1678   -1.7520 H   0  0  0  0  0  0  0  0  0  0  0  0
   -1.9758   -2.1153   -0.2780 H   0  0  0  0  0  0  0  0  0  0  0  0
   -1.2265   -1.3599    1.1336 H   0  0  0  0  0  0  0  0  0  0  0  0
   -2.9753   -0.0002   -0.9534 H   0  0  0  0  0  0  0  0  0  0  0  0
   -3.2109   -0.0001    0.7996 H   0  0  0  0  0  0  0  0  0  0  0  0
   -1.2267    1.3599    1.1335 H   0  0  0  0  0  0  0  0  0  0  0  0
   -1.9760    2.1150   -0.2782 H   0  0  0  0  0  0  0  0  0  0  0  0
  1 11  1  6  0  0  0
  1  2  1  0  0  0  0
  1 10  1  0  0  0  0
  2 12  1  6  0  0  0
  2  3  1  0  0  0  0
  3 13  1  0  0  0  0
  4  3  2  0  0  0  0
  4 14  1  0  0  0  0
  5 15  1  6  0  0  0
  5  4  1  0  0  0  0
  6 16  1  0  0  0  0
  6  5  1  0  0  0  0
  6  2  1  0  0  0  0
  7 18  1  6  0  0  0
  7  1  1  0  0  0  0
  7  5  1  0  0  0  0
  7  8  1  0  0  0  0
  8 20  1  0  0  0  0
  9 10  1  0  0  0  0
  9  8  1  0  0  0  0
  9 22  1  0  0  0  0
 10 23  1  0  0  0  0
 17  6  1  0  0  0  0
 19  8  1  0  0  0  0
 21  9  1  0  0  0  0
 24 10  1  0  0  0  0
M  END
$$$$
