18

Cl    -0.000001   -0.000000    0.000001
F      0.350709   -0.139369    3.252807
C      0.075034   -0.028761    4.606710
C     -0.920754    1.124531    4.809072
C     -0.507100   -1.360840    5.074186
C      1.369323    0.247745    5.379561
O     -0.000571    5.402023    5.000003
H     -1.279523    1.527094    3.839344
H     -0.439862    1.969501    5.348886
H     -1.798754    0.776232    5.388939
H     -1.263162   -1.701521    4.340514
H      0.305749   -2.114591    5.140128
H     -0.966830   -1.271170    6.079629
H      1.153108    0.783687    6.328468
H      1.891398   -0.692990    5.653038
H      2.030667    0.880453    4.758719
H      0.786565    4.800002    4.999998
H     -0.785994    4.797974    4.999997
