24

C     -0.117700    1.171650   -0.017060
C      1.086108    0.664884    0.179270
C      0.996081   -0.787288    0.166288
C     -0.260622   -1.139732   -0.031550
C     -1.111994    0.069479   -0.183577
C      1.220853   -0.511292    4.898489
C      1.060212    0.786633    5.140862
C     -0.381601    1.143905    5.030906
C     -1.029252   -0.195225    5.339509
C     -0.097230   -1.134427    4.599878
H     -0.333679    2.235077   -0.048125
H      1.984977    1.249276    0.326597
H      1.811061   -1.485149    0.293171
H     -0.619971   -2.160427   -0.096617
H     -1.882800    0.111544    0.612164
H     -1.551409    0.070649   -1.200428
H      2.156080   -1.051208    4.980906
H      1.846120    1.468253    5.443709
H     -0.696579    1.943830    5.724996
H     -0.579295    1.415504    3.967264
H     -2.084064   -0.273141    5.010245
H     -0.939304   -0.386747    6.436470
H     -0.291855   -1.015876    3.509190
H     -0.184137   -2.190170    4.917444
