-25.35952963
 OpenBabel09062220433D

 21 23  0  0  1  0  0  0  0  0999 V2000
   -0.6310   -0.7707    0.7306 C   0  0  2  0  0  0  0  0  0  0  0  0
   -0.6311    0.7709    0.7303 C   0  0  1  0  0  0  0  0  0  0  0  0
    0.7953    1.1207    0.2436 C   0  0  2  0  0  0  0  0  0  0  0  0
    0.9155    0.6631   -1.1870 C   0  0  0  0  0  0  0  0  0  0  0  0
    0.9156   -0.6635   -1.1868 C   0  0  0  0  0  0  0  0  0  0  0  0
    0.7955   -1.1205    0.2441 C   0  0  1  0  0  0  0  0  0  0  0  0
    1.5822    0.0003    0.9436 C   0  0  0  0  0  0  0  0  0  0  0  0
   -1.7877    0.7688   -0.2843 C   0  0  0  0  0  0  0  0  0  0  0  0
   -1.7876   -0.7690   -0.2841 C   0  0  0  0  0  0  0  0  0  0  0  0
   -0.8508   -1.2647    1.6766 H   0  0  0  0  0  0  0  0  0  0  0  0
   -0.8508    1.2651    1.6763 H   0  0  0  0  0  0  0  0  0  0  0  0
    1.1025    2.1450    0.4426 H   0  0  0  0  0  0  0  0  0  0  0  0
    0.9527    1.3273   -2.0317 H   0  0  0  0  0  0  0  0  0  0  0  0
    0.9530   -1.3281   -2.0311 H   0  0  0  0  0  0  0  0  0  0  0  0
    1.1029   -2.1447    0.4435 H   0  0  0  0  0  0  0  0  0  0  0  0
    2.6402    0.0004    0.6848 H   0  0  0  0  0  0  0  0  0  0  0  0
    1.4685    0.0005    2.0270 H   0  0  0  0  0  0  0  0  0  0  0  0
   -1.5480    1.2233   -1.2429 H   0  0  0  0  0  0  0  0  0  0  0  0
   -2.7054    1.2127    0.0968 H   0  0  0  0  0  0  0  0  0  0  0  0
   -2.7051   -1.2130    0.0970 H   0  0  0  0  0  0  0  0  0  0  0  0
   -1.5477   -1.2236   -1.2427 H   0  0  0  0  0  0  0  0  0  0  0  0
  1 10  1  1  0  0  0
  2  1  1  0  0  0  0
  2 11  1  1  0  0  0
  3 12  1  1  0  0  0
  3  2  1  0  0  0  0
  3  7  1  0  0  0  0
  4  5  2  0  0  0  0
  4  3  1  0  0  0  0
  5  6  1  0  0  0  0
  6 15  1  1  0  0  0
  6  1  1  0  0  0  0
  6  7  1  0  0  0  0
  7 17  1  0  0  0  0
  8  9  1  0  0  0  0
  8 19  1  0  0  0  0
  8  2  1  0  0  0  0
  9 20  1  0  0  0  0
  9  1  1  0  0  0  0
 13  4  1  0  0  0  0
 14  5  1  0  0  0  0
 16  7  1  0  0  0  0
 18  8  1  0  0  0  0
 21  9  1  0  0  0  0
M  END
$$$$
