  21
 
 C         -0.6309676516       -0.7707310642        0.7305655991
 C         -0.6310803510        0.7709074820        0.7303219074
 C          0.7953180830        1.1207024230        0.2436428979
 C          0.9154874062        0.6630591461       -1.1870413991
 C          0.9156290122       -0.6634862962       -1.1867620926
 C          0.7955130541       -1.1205447749        0.2441144110
 C          1.5822259824        0.0002992029        0.9435626683
 C         -1.7877224481        0.7688000343       -0.2843170737
 C         -1.7875709800       -0.7690186925       -0.2841305977
 H         -0.8507470734       -1.2646664633        1.6766539293
 H         -0.8508141589        1.2651060077        1.6762979398
 H          1.1025214004        2.1450316702        0.4426024466
 H          0.9526766379        1.3272881449       -2.0316889490
 H          0.9529631192       -1.3280838302       -2.0311356110
 H          1.1029157104       -2.1447366961        0.4435493908
 H          2.6402004073        0.0003569511        0.6848141275
 H          1.4684540851        0.0005117964        2.0270128523
 H         -1.5480527524        1.2233322270       -1.2429336836
 H         -2.7053646379        1.2126815103        0.0968260656
 H         -2.7051327620       -1.2130402166        0.0970196123
 H         -1.5477343124       -1.2236316704       -1.2426547583
