pentane charge=0 mult=1
 OpenBabel05012218123D

 17 16  0  0  0  0  0  0  0  0999 V2000
   -1.3198   -0.2542   -0.0206 C   0  0  0  0  0  0  0  0  0  0  0  0
   -0.9632   -1.2630   -0.0206 H   0  0  0  0  0  0  0  0  0  0  0  0
   -0.9632    0.2502   -0.8943 H   0  0  0  0  0  0  0  0  0  0  0  0
   -2.3898   -0.2542   -0.0206 H   0  0  0  0  0  0  0  0  0  0  0  0
   -0.8065    0.4717    1.2368 C   0  0  0  0  0  0  0  0  0  0  0  0
   -1.1631    1.4805    1.2368 H   0  0  0  0  0  0  0  0  0  0  0  0
   -1.1632   -0.0327    2.1105 H   0  0  0  0  0  0  0  0  0  0  0  0
    0.7335    0.4717    1.2368 C   0  0  0  0  0  0  0  0  0  0  0  0
    1.0902    0.9759    0.3631 H   0  0  0  0  0  0  0  0  0  0  0  0
    1.0902   -0.5371    1.2370 H   0  0  0  0  0  0  0  0  0  0  0  0
    1.2469    1.1979    2.4941 C   0  0  0  0  0  0  0  0  0  0  0  0
    0.8901    0.6937    3.3678 H   0  0  0  0  0  0  0  0  0  0  0  0
    0.8902    2.2067    2.4939 H   0  0  0  0  0  0  0  0  0  0  0  0
    2.7869    1.1978    2.4941 C   0  0  0  0  0  0  0  0  0  0  0  0
    3.1436    1.7020    1.6204 H   0  0  0  0  0  0  0  0  0  0  0  0
    3.1435    1.7024    3.3677 H   0  0  0  0  0  0  0  0  0  0  0  0
    3.1435    0.1890    2.4943 H   0  0  0  0  0  0  0  0  0  0  0  0
  1  5  1  0  0  0  0
  2  1  1  0  0  0  0
  3  1  1  0  0  0  0
  4  1  1  0  0  0  0
  5  8  1  0  0  0  0
  5  7  1  0  0  0  0
  6  5  1  0  0  0  0
  8 10  1  0  0  0  0
  8 11  1  0  0  0  0
  9  8  1  0  0  0  0
 11 14  1  0  0  0  0
 11 12  1  0  0  0  0
 13 11  1  0  0  0  0
 14 17  1  0  0  0  0
 14 16  1  0  0  0  0
 15 14  1  0  0  0  0
M  END
$$$$
