21

C     -0.244581   -1.144849   -0.039388
C      1.022205   -0.771582   -0.046874
C      1.093360    0.676932    0.004901
C     -0.135315    1.167917    0.043147
C     -1.132512    0.054752    0.022830
C      1.060706   -0.421488    5.019668
C      0.671203    0.911219    5.030842
C     -0.769348    0.523917    5.012350
C     -0.364484   -0.855529    4.972882
H     -0.573191   -2.176949   -0.072027
H      1.865272   -1.446269   -0.085608
H      2.006626    1.256550    0.011084
H     -0.376580    2.224048    0.085703
H     -1.782683    0.112575   -0.871416
H     -1.742623    0.046819    0.947586
H      2.021142   -0.921976    5.018560
H      1.198828    1.853110    5.050191
H     -1.290475    0.865109    4.090488
H     -1.287517    0.851907    5.941763
H     -0.584226   -1.348015    4.001012
H     -0.655806   -1.458198    5.862305
