  10
 
 C          0.8348959130        0.6197412070        0.0140671058
 C          0.7656484560       -0.7066011382       -0.0180370720
 C         -0.7375681087       -0.7394577089       -0.0153375742
 C         -0.6566504955        0.8087844329        0.0222801031
 H          1.6390083307        1.3331718920        0.0300371115
 H          1.4911337415       -1.4997353332       -0.0395447842
 H         -1.1917489303       -1.1958096003        0.8629388538
 H         -1.1966669556       -1.1527637028       -0.9121274891
 H         -1.0672983389        1.3102485413       -0.8528470098
 H         -1.0637782596        1.2672506137        0.9222019584
          10
        -11.55796950
 C          0.7813638573        0.6642981720       -0.0000475633
 C          0.7814590422       -0.6642385749        0.0000438519
 C         -0.7180015766       -0.7754353875       -0.0000165059
 C         -0.7180284055        0.7753761669        0.0000193480
 H          1.5471346047        1.4189040998        0.0004213876
 H          1.5473711703       -1.4187130625       -0.0003942320
 H         -1.1509710586       -1.2334531224        0.8880510218
 H         -1.1516688965       -1.2337514900       -0.8875438312
 H         -1.1510691137        1.2333681087       -0.8880484947
 H         -1.1517697494        1.2336409801        0.8875245077
