10

C      0.471895   -0.677536    0.701853
C      1.057211    0.172396   -0.073187
C     -0.170261    0.653175   -0.647387
C     -0.846310   -0.317059    0.236667
H      0.924789   -1.396176    1.439727
H      2.151826    0.400318   -0.199336
H     -0.230177    0.447607   -1.743337
H     -0.491174    1.692988   -0.378957
H     -1.491188    0.106132    1.046802
H     -1.376612   -1.081846   -0.382845
