18

C      0.900023   -0.956386    0.077236
C     -0.594767   -1.074203    0.219638
C     -1.058004   -0.024001    1.157729
C     -0.902624    1.154814    0.570395
C     -0.321203    0.912511   -0.798409
C     -1.029143   -0.418125   -1.104373
C      1.080397    0.442466   -0.593478
C      1.603920    0.182125    0.794301
H      1.501276   -1.776100   -0.319789
H     -0.984509   -2.054982    0.365778
H     -1.449566   -0.201281    2.140321
H     -1.121393    2.151711    0.924109
H     -0.495801    1.680655   -1.509053
H     -2.096158   -0.248324   -1.056327
H     -0.630674   -0.918169   -1.969644
H      1.816308    0.465149   -1.427450
H      1.072822    0.615754    1.666380
H      2.709096    0.066386    0.862633
