-22.17280542
 OpenBabel09062220363D

 18 20  0  0  1  0  0  0  0  0999 V2000
    1.0526   -0.4051    0.7524 C   0  0  1  0  0  0  0  0  0  0  0  0
   -0.4456   -0.3241    1.1166 C   0  0  1  0  0  0  0  0  0  0  0  0
   -0.9784    1.0115    0.6637 C   0  0  0  0  0  0  0  0  0  0  0  0
   -0.9785    1.0113   -0.6641 C   0  0  0  0  0  0  0  0  0  0  0  0
   -0.4457   -0.3245   -1.1164 C   0  0  2  0  0  0  0  0  0  0  0  0
   -1.0256   -1.2143    0.0003 C   0  0  0  0  0  0  0  0  0  0  0  0
    1.0525   -0.4056   -0.7522 C   0  0  1  0  0  0  0  0  0  0  0  0
    1.7017    0.7161   -0.0003 C   0  0  0  0  0  0  0  0  0  0  0  0
    1.6594   -1.0718    1.3464 H   0  0  0  0  0  0  0  0  0  0  0  0
   -0.6667   -0.6046    2.1435 H   0  0  0  0  0  0  0  0  0  0  0  0
   -1.2444    1.8118    1.3303 H   0  0  0  0  0  0  0  0  0  0  0  0
   -1.2445    1.8113   -1.3309 H   0  0  0  0  0  0  0  0  0  0  0  0
   -0.6670   -0.6054   -2.1433 H   0  0  0  0  0  0  0  0  0  0  0  0
   -2.1151   -1.2508    0.0003 H   0  0  0  0  0  0  0  0  0  0  0  0
   -0.6227   -2.2264    0.0004 H   0  0  0  0  0  0  0  0  0  0  0  0
    1.6591   -1.0728   -1.3457 H   0  0  0  0  0  0  0  0  0  0  0  0
    1.2591    1.6989   -0.0006 H   0  0  0  0  0  0  0  0  0  0  0  0
    2.7830    0.7314   -0.0001 H   0  0  0  0  0  0  0  0  0  0  0  0
  1  2  1  0  0  0  0
  1  9  1  1  0  0  0
  2 10  1  1  0  0  0
  3  2  1  0  0  0  0
  3 11  1  0  0  0  0
  4  3  2  0  0  0  0
  5 13  1  6  0  0  0
  5  7  1  0  0  0  0
  5  4  1  0  0  0  0
  5  6  1  0  0  0  0
  6 14  1  0  0  0  0
  6 15  1  0  0  0  0
  6  2  1  0  0  0  0
  7 16  1  6  0  0  0
  7  8  1  0  0  0  0
  7  1  1  0  0  0  0
  8 18  1  0  0  0  0
  8  1  1  0  0  0  0
 12  4  1  0  0  0  0
 17  8  1  0  0  0  0
M  END
$$$$
