13

C      1.191643    0.583777    0.077950
C      1.071867   -0.728969   -0.085599
C     -0.365191   -1.138445    0.062665
C     -1.025451    0.147221   -0.437855
C     -0.172208    1.145375    0.349386
H      2.119064    1.118137    0.019457
H      1.845607   -1.445763   -0.294376
H     -0.614903   -2.004630   -0.542624
H     -0.546754   -1.253437    1.136550
H     -2.076895    0.209709   -0.204622
H     -0.756405    0.227334   -1.498058
H     -0.294503    2.166372    0.002261
H     -0.375869    0.973320    1.414864
