  18
 
 C         -0.8713245938       -0.2565353447       -1.1524062539
 C         -0.9557021207        1.0291368817       -0.7097218338
 C         -0.9554796540        1.0294033544        0.7095012185
 C         -0.8707872867       -0.2561017849        1.1526420437
 C         -1.1373843665       -1.1748108991        0.0003544350
 C          1.4106077467       -0.5232058862        0.6642747589
 C          1.4102772865       -0.5229478424       -0.6646553130
 C          1.9079880273        0.7148160494       -0.0000224364
 H         -0.9204174852       -0.5758922391       -2.1785618781
 H         -0.9296919755        1.9126014907       -1.3230522937
 H         -0.9292847626        1.9131892340        1.3224296323
 H         -0.9196281765       -0.5749060246        2.1789337457
 H         -0.5748729222       -2.1045986174        0.0003624895
 H         -2.2036731033       -1.4342871746        0.0006170341
 H          1.4837186501       -1.0782121906        1.5660893479
 H          1.4838026577       -1.0778858104       -1.5664652890
 H          2.9694957343        0.9466449179       -0.0003112129
 H          1.2770722568        1.5995973922        0.0003562213
