18

C     -0.447403   -1.084084    0.049962
C      0.850725   -0.931186    0.245764
C      1.180377    0.484763    0.158754
C      0.076401    1.166017   -0.089622
C     -1.079813    0.237396   -0.212325
C     -0.491385    0.712746    5.044483
C     -0.526176   -0.731731    4.993802
C      0.701617   -0.035765    4.970469
H     -0.972767   -2.034754    0.052182
H      1.541439   -1.740388    0.437601
H      2.159349    0.930665    0.274597
H      0.018908    2.242900   -0.209858
H     -1.860390    0.469178    0.541171
H     -1.466850    0.259502   -1.248226
H     -1.059991    1.632646    5.100296
H     -1.149399   -1.618717    4.988191
H      1.299952   -0.021627    5.908853
H      1.225406    0.062441    3.993908
